07_CYME/Commonwealth_ret_01311205.sxst_DSS/Libraries/UGLineCodes_.DSS
New LineCode.1/0-AL-HMWPECN-15KV nPhases=3 R1=0.703206 X1=0.170436 R0=1.291787 X0=0.253749 B1=12.660434 B0=0.000000 NormAmps=267.000000 Units=km
New LineCode.1/0-AL-TRXLPELCJ-15KV nPhases=3 R1=0.697129 X1=0.169361 R0=1.764551 X0=0.751057 B1=12.660434 B0=0.000000 NormAmps=244.000000 Units=km
New LineCode.1/0-AL-TRXLPELCJ-25KV nPhases=3 R1=0.697390 X1=0.180707 R0=1.680672 X0=0.637465 B1=9.817662 B0=0.000000 NormAmps=243.000000 Units=km
New LineCode.2-AL-HMWPECN-15KV nPhases=3 R1=1.107507 X1=0.186256 R0=1.969330 X0=0.476728 B1=11.234388 B0=0.000000 NormAmps=207.000000 Units=km
New LineCode.350-AL-XLPEDWJ-15KV nPhases=3 R1=0.213497 X1=0.145823 R0=0.924861 X0=2.131303 B1=15.956807 B0=0.000000 NormAmps=387.000000 Units=km
